Geom Title=Grnway
Program Version=4.10
Viewing Rectangle= 656907.436952101 , 665281.415082021 , 959527.716276245 , 957256.268303803 

River Reach=G               ,1               
Reach XY= 2560 
665180.891732283957372.731627293665179.920275591957372.956364833
665178.948818896957373.180774279665177.977362204957373.405511811
665177.005905513957373.630249344665176.034776904 957373.85465879
665175.063320208957374.079396322665174.091863517957374.304133855
665173.120406825957374.528543308 665172.14895013957374.753280841
665171.177493438957374.978018373665170.206036747957375.202427819
665169.234580051957375.427165352665168.263451442957375.651902884
665167.291994751957375.876312338665166.320538059 957376.10104987
665165.349081364957376.325787403665164.377624672957376.550196849
 665163.40616798957376.774934381665162.434711285957376.999671914
665161.463254593957377.224081367665160.491797902  957377.4488189
665159.520669293957377.673556432665158.549212597957377.897965878
665157.577755906957378.122703411665156.606299214957378.347440943
665155.634842519957378.571850397665154.663385827957378.796587929
665153.691929135957379.021325462 665152.72047244957379.245734908
665151.749015749 957379.47047244665150.777887139957379.695209973
665149.806430448957379.919619426665148.834973753957380.144356959
665147.863517061957380.369094491665146.892060369957380.593503937
665145.920603674 957380.81824147665144.949146982957381.042979002
665143.977690287957381.267388448665143.006561682957381.492125981
665142.035104986 957381.71686352665141.063648295957381.941272967
665140.092191599957382.166010499665139.120734908957382.390748031
665138.149278216957382.615485564665137.177821521 957382.83989501
665136.206364829957383.064632542665135.234908137957383.289370082
665134.263779528957383.513779528665133.292322833957383.738517061
665132.320866141957383.963254593 665131.34940945957384.187664039
665130.377952755957384.412401572665129.406496063957384.637139104
665128.435039371957384.861548558665127.463582676 957385.08628609
665126.492125984957385.311023623665125.520997375957385.535433069
665124.549540684957385.760170601665123.578083988957385.984908134
665122.606627297957386.209317587665121.635170605 957386.43405512
 665120.66371391957386.658792652665119.692257218957386.883202098
665118.720800526957387.107939631665117.749671917957387.332677163
665116.778215222957387.557086617 665115.80675853957387.781824149
665114.835301839957388.006561682665113.863845143957388.230971128
665112.892388452 957388.45570866 665111.92093176957388.680446193
665110.949475065957388.904855646665109.978018373957389.129593179
665109.006889764957389.354330711665108.035433073957389.578740157
665107.063976377 957389.80347769665106.092519686957390.028215222
 665105.12106299957390.252624676665104.149606299957390.477362208
665103.178149607957390.702099741665102.206692912957390.926509187
 665101.23523622957391.151246719665100.264107611957391.375984252
665099.292650919957391.600393698665098.321194224 957391.82513123
665097.349737532 957392.04986877665096.378280841957392.274278216
665095.406824145957392.499015749665094.435367454957392.723753281
665093.463910762957392.948162727665092.492782153957393.172900259
665091.521325458957393.397637792665090.549868766957393.622047246
665089.578412075957393.846784778665088.606955379 957394.07152231
665087.635498688957394.295931757665086.664041996957394.520669289
665085.692585301957394.745406821665084.721128609957394.969816275
       665083.75957395.194553807665082.778543308 957395.41929134
665081.807086613957395.643700786665080.835629921957395.868438318
 665079.86417323957396.093175851665078.892716534957396.317585304
665077.921259843957396.542322837665076.949803151957396.767060369
665075.978346456957396.991469815665075.007217847957397.216207348
665074.035761155 957397.44094488665073.064304464957397.665354334
665072.092847768957397.890091866665071.121391077957398.114829399
665070.149934385957398.339238845 665069.17847769957398.563976377
665068.207020998 957398.78871391665067.235892389957399.013123363
665066.264435697957399.237860896665065.292979002957399.462598428
 665064.32152231957399.687007874665063.350065615957399.911745407
665062.378608923957400.136482939665061.407152232957400.360892385
665060.435695536957400.585629918665059.464238845957400.810367458
665058.493110236957401.034776904665057.521653544957401.259514436
665056.550196849957401.484251969665055.578740157957401.708661415
665054.607283466957401.933398947 665053.63582677 957402.15813648
665052.664370079957402.382874019665051.692913387957402.607283466
665050.721456692957402.832020998665049.750328083 957403.05675853
665048.778871391957403.281167977665047.807414699957403.505905509
665046.835958004957403.730643041665045.864501312957403.955052495
665044.893044621957404.179790027665043.921587925 957404.40452756
665042.950131234957404.628937006665041.979002625957404.853674538
665041.007545933957405.078412071665040.036089238957405.302821524
665039.064632546957405.527559057665038.093175855957405.752296589
665037.121719159957405.976706035665036.150262468957406.201443568
665035.178805776  957406.4261811665034.207349081957406.650590554
665033.236220472957406.875328086 665032.26476378957407.100065619
665031.293307088957407.324475065665030.321850393957407.549212597
665029.350393701 957407.77395013 665028.37893701957407.998359583
665027.407480314957408.223097116665026.436023623957408.447834648
665025.464566927957408.672244094665024.493438318957408.896981627
665023.521981627957409.121719159665022.550524935957409.346128605
 665021.57906824957409.570866145665020.607611548957409.795603678
665019.636154857957410.020013124665018.664698161957410.244750656
 665017.69324147957410.469488189665016.722112861957410.693897635
665015.750656169957410.918635167665014.779199474957411.143372707
665013.807742782957411.367782153 665012.83628609957411.592519686
665011.872375328957411.840551183665010.908792652 957412.08858268
 665009.94488189957412.336614177665008.981299214957412.584317587
665008.017388452957412.832349084 665007.05347769957413.080380574
665006.089895014957413.328412071665005.125984252957413.576443568
665004.162401576957413.824475065665003.198490813957414.072506562
665002.234908137957414.320538059665001.270997375 957414.56824147
665000.307086613957414.816272967664999.343503937957415.064304464
664998.379593175957415.312335961664997.416010499957415.560367458
664996.452099737957415.808398947664995.488188975957416.056430444
664994.524606299957416.304461941664993.560695536957416.552165352
664992.597112861957416.800196849664991.633202098957417.048228346
 664990.66929134957417.296259843 664989.70570866 957417.54429134
664988.741797902957417.792322837664987.778215222957418.040354334
664986.814304464957418.288057745664985.850393701957418.536089242
664984.886811025957418.784120739664983.922900263957419.032152228
664982.959317584957419.280183725664981.995406825957419.528215222
664981.031496063957419.776246719664980.067913387957420.024278216
664979.104002625957420.271981627664978.140419949957420.520013124
664977.176509187957420.768044621664976.212926511957421.016076118
664975.249015749957421.264107615664974.285104986957421.512139104
 664973.32152231957421.760170601664972.357611548957422.008202098
664971.394028872957422.255905509 664970.43011811957422.503937006
664969.466207348957422.751968503664968.502624672         957423.
 664967.53871391957423.248031497664966.575131234957423.496062994
664965.611220472957423.744094491664964.647309713957423.992125981
664963.683727033957424.239829399664962.719816271957424.487860896
664961.756233595957424.735892385664960.792322833957424.983923882
664959.828412075957425.231955379664958.864829395957425.479986876
664957.900918636957425.728018373664956.937335957957425.975721784
664955.973425198957426.223753281664955.009842519957426.471784778
 664954.04593176957426.719816275664953.082020998957426.967847772
664952.118438318957427.215879261 664951.15452756957427.463910759
 664950.19094488957427.711942256664949.227034122957427.959645666
 664948.26312336957428.207677163664947.299540684 957428.45570866
664946.335629921957428.703740157664945.372047246957428.951771654
664944.408136483957429.199803151664943.444225721957429.447834648
664942.480643045957429.695866145664941.516732283957429.943569556
664940.553149607957430.191601053664939.589238845957430.439632542
664938.625656169957430.687664039664937.661745407957430.935695536
664936.697834644957431.183727033664935.734251969 957431.43175853
664934.770341206957431.679461941 664933.80675853957431.927493438
664932.842847768957432.175524935 664931.87893701957432.423556432
 664930.91535433957432.671587929664929.951443568957432.919619426
664928.987860892957433.167650916 664928.02395013957433.415682413
664927.060039371957433.663385823664926.096456692 957433.91141732
664925.132545933957434.159448817664924.168963254957434.407480314
664923.205052495957434.655511811664922.241141733957434.903543308
664921.277559057957435.151574805664920.313648295957435.399606302
664919.350065615957435.647309713664918.386154857 957435.89534121
664917.422572177957436.143372707664916.458661418957436.391404197
664915.494750656957436.639435694 664914.53116798957436.887467191
664913.567257218957437.135498688664912.603674542957437.383202098
 664911.63976378957437.631233595664910.675853018957437.879265092
664909.712270342957438.127296589 664908.74835958957438.375328086
664907.784776904957438.623359583664906.820866141957438.871391073
664905.856955379 957439.11942257664904.893372703957439.367125981
664903.929461941957439.615157478664902.965879265957439.863188975
664902.001968503957440.111220472664901.038057745957440.359251969
664900.074475065957440.607283466664899.110564303957440.855314963
664898.146981627 957441.10334646664897.183070865 957441.35104987
664896.219160106957441.599081367664895.255577426957441.847112864
664894.291666668957442.095144354664893.328083988957442.343175851
 664892.36417323957442.591207348 664891.40059055957442.839238845
664890.436679792957443.087270342664889.472769029957443.334973753
664888.509186354 957443.58300525664887.545275591957443.831036747
664886.581692912957444.079068244664885.617782153957444.327099741
664884.653871391 957444.57513123664883.690288715957444.823162727
664882.726377953957445.070866145664881.762795277957445.318897635
664880.798884515957445.566929132664879.834973753957445.814960629
664878.871391077957446.062992126664877.907480314957446.311023623
664876.943897638 957446.55905512664875.979986876957446.807086617
  664875.0164042957447.054790027664874.052493438957447.302821524
664873.088582676957447.550853021      664872.125957447.798884511
664871.161089238957448.046916008664870.197506562957448.294947505
  664869.2335958957448.542979002664868.269685041957448.791010499
664867.306102362 957449.03871391664866.342191599957449.286745407
664865.378608923957449.534776904664864.414698161957449.782808401
664863.452755906957450.046916008664862.490485564957450.310695536
664861.528543308957450.574803151664860.566601049 957450.83858268
664859.604330707957451.102690287664858.642388452957451.366469815
664857.680446193 957451.63057743664856.718503937957451.894356959
664855.756233595957452.158464566 664854.79429134957452.422244094
664853.832349081957452.686351709664852.870078739 957452.95013123
664851.908136483957453.214238845664850.946194224957453.478018373
664849.983923886957453.742125981664849.021981627957454.005905509
664848.060039371957454.270013124664847.098097112957454.533792652
 664846.13582677957454.797900259664845.173884515957455.061679788
664844.211942256957455.325787403664843.249671917957455.589566931
664842.287729658957455.853674538664841.325787403957456.117454067
664840.363517061957456.381561682664839.401574802 957456.64534121
664838.439632546957456.909448817664837.477690287957457.173228346
664836.515419949957457.437335961 664835.55347769957457.701115489
664834.591535434957457.965223096664833.629265092957458.229002625
664832.667322833 957458.49311024664831.705380578957458.757217847
664830.743110236957459.020997375 664829.78116798 957459.28510499
664828.819225721957459.548884511664827.857283466957459.812992126
664826.895013124957460.076771654664825.933070865957460.340879261
664824.971128609 957460.60465879664824.008858267957460.868766405
664823.046916012957461.132545933664822.084973753 957461.39665354
664821.122703411957461.660433069664820.160761155957461.924540684
664819.198818896957462.188320212 664818.23687664957462.452427819
664817.274606299957462.716207348664816.312664043957462.980314963
664815.350721784957463.244094491664814.388451442957463.508202098
664813.426509187957463.771981627664812.464566927957464.036089242
664811.502296589 957464.29986877 664810.54035433957464.563976377
664809.578412075957464.827755906664808.616141733 957465.09186352
664807.654199474957465.355643041664806.692257218957465.619750656
664805.730314959957465.883530185664804.768044621957466.147637792
664803.806102362 957466.41141732664802.844160106957466.675524935
664801.881889764957466.939304464664800.919947505957467.203412071
 664799.95800525957467.467191599664798.995734908957467.731299214
664798.033792652957467.995406821664797.071850393 957468.25918635
664796.109908137957468.523293965664795.147637796957468.787073493
664794.185695536  957469.0511811664793.223753281957469.314960629
664792.261482939957469.579068244664791.299540684957469.842847772
664790.337598424957470.106955379664789.375328083957470.370734908
664788.413385827957470.634842522664787.451443568957470.898622051
664786.489501312957471.162729658664785.527230971957471.426509187
664784.565288715957471.690616801664783.603346456957471.954396322
664782.641076114957472.218503937664781.679133859957472.482283466
664780.717191599957472.746391073664779.754921261957473.010170601
664778.792979002957473.274278216664777.831036747957473.538057745
664776.869094487957473.802165352664775.906824145 957474.06594488
 664774.94488189957474.330052495664773.982939631957474.593832023
664773.020669293957474.857939631664772.058727033957475.121719159
664771.096784778957475.385826774664770.134514436957475.649606302
664769.172572177 957475.91371391664768.210629921957476.177493438
664767.248687662957476.441601053664766.286417324 957476.70570866
664765.324475065957476.969488189664764.362532809957477.233595803
664763.400262468957477.497375324664762.438320208957477.761482939
664761.476377953957478.025262468664760.514107611957478.289370082
664759.552165356957478.553149603664758.590223096957478.817257218
664757.627952755957479.081036747664756.666010499957479.345144354
 664755.70406824957479.608923882664754.742125984957479.873031497
664753.779855642957480.136811025664752.817913387957480.400918633
664751.855971128957480.664698161664750.893700786957480.928805776
 664749.93175853957481.192585304664748.969816271957481.456692912
664748.007545933 957481.72047244664747.045603674957481.984580055
664746.083661418957482.248359583664745.121719159957482.512467191
664744.159448817957482.776246719664743.197506562957483.040354334
664742.235564303957483.304133855664741.273293965 957483.56824147
664740.311351705957483.832020998 664739.34940945957484.096128605
664738.387139108957484.359908134664737.425196849957484.624015749
664736.463254593957484.887795277664735.501312338957485.151902884
664734.539041996957485.416010499664733.577099737957485.679790027
664732.615157481957485.943897635664731.652887139957486.207677163
 664730.69094488957486.471784778664729.729002625957486.735564306
664728.766732283957486.999671914664727.804790027957487.263451442
664726.842847768957487.527559057664725.880905513957487.791338585
664724.918635171957488.055446193664723.956692912957488.319225721
664722.994750656957488.583333336664722.032480314957488.847112864
664721.070538059957489.111220472  664720.1085958      957489.375
664719.146325458957489.639107615664718.184383202957489.902887136
664717.222440943957490.166994751664716.260170605957490.430774279
664715.298228346957490.694881886 664714.33628609957490.958661415
664713.374343831957491.222769029664712.412073489957491.486548558
664711.450131234957491.750656165664710.488188975957492.014435694
664709.525918636957492.278543308664708.563976377957492.542322837
664707.602034122957492.806430444 664706.63976378957493.070209973
664705.677821521957493.334317587664704.715879265957493.598097116
 664703.75393701957493.862204723664702.791666668957494.125984252
664701.829724409957494.390091866664700.867782153957494.654199474
664699.905511811957494.917979002664698.943569552957495.182086617
664697.981627297957495.445866145664697.019356955957495.709973753
664696.057414699957495.973753281 664695.09547244957496.237860896
664694.133530185957496.501640417664693.171259843957496.765748031
664692.209317584 957497.02952756664691.247375328957497.293635167
664690.285104986957497.557414696664689.323162731 957497.82152231
664688.361220472957498.085301839 664687.39895013957498.349409446
664686.437007874957498.613188975664685.475065615957498.877296589
 664684.51312336957499.141076118664683.550853018957499.405183725
664682.588910762957499.668963254664681.626968503957499.933070868
664680.664698161957500.196850397664679.702755906957500.460958004
664678.740813646957500.724737532664677.778543308957500.988845147
664676.816601049957501.252624676664675.854658794957501.516732283
664674.892716534957501.780511811664673.930446193957502.044619426
664672.968503937957502.308398947664672.006561682957502.572506562
 664671.04429134 957502.83628609664670.082349081957503.100393698
664669.112860892957503.327427819664668.143044621957503.554790027
664667.173556432957503.781824149664666.203740157957504.008858271
664665.234251969957504.236220472 664664.26476378957504.463254593
664663.294947505957504.690616801664662.325459316957504.917650916
664661.355643045957505.144685037664660.386154857957505.372047246
664659.416666668957505.599081367664658.446850393957505.826115489
664657.477362204 957506.05347769664656.507545933957506.280511811
664655.538057745957506.507545933664654.568569552957506.734908134
664653.598753281957506.961942256664652.629265092957507.188976377
664651.659776904957507.416338585664650.689960629957507.643372707
 664649.72047244957507.870734908664648.750656169957508.097769029
 664647.78116798957508.324803151664646.811679792957508.552165352
664645.841863517957508.779199474664644.872375328957509.006233595
664643.902559057957509.233595803664642.933070865957509.460629918
664641.963582676957509.687664039664640.993766405957509.915026248
664640.024278216957510.142060369664639.054461941957510.369094491
664638.084973753957510.596456692664637.115485564957510.823490813
664636.145669293957511.050853021664635.176181104957511.277887136
664634.206364829957511.504921258 664633.23687664957511.732283466
664632.267388452957511.959317587664631.297572177957512.186351709
664630.328083988 957512.41371391664629.358267717957512.640748031
664628.388779528957512.867782153 664627.41929134957513.095144354
664626.449475065957513.322178476664625.479986876957513.549540684
664624.510170605957513.776574805664623.540682416957514.003608927
664622.571194224957514.230971128664621.601377953 957514.45800525
664620.631889764957514.685039371664619.662073489957514.912401572
664618.692585301957515.139435694664617.723097112957515.366469815
664616.753280841957515.593832023664615.783792652957515.820866145
664614.814304464957516.047900259664613.844488189957516.275262468
      664612.875957516.502296589664611.905183729 957516.72965879
664610.935695536957516.956692912664609.966207348957517.183727033
664608.996391077957517.411089242664608.026902888957517.638123363
664607.057086613957517.865157478664606.087598424957518.092519686
664605.118110236957518.319553807664604.148293965957518.546587929
664603.178805776 957518.77395013664602.208989501957519.000984252
664601.239501312 957519.22834646664600.270013124957519.455380574
664599.300196849957519.682414696 664598.33070866957519.909776904
664597.360892389957520.136811025  664596.3914042957520.363845147
664595.421916012957520.591207348664594.452099737 957520.81824147
664593.482611548957521.045275591664592.512795277957521.272637792
664591.543307088957521.499671914664590.573818896957521.726706035
664589.604002625957521.954068244664588.634514436957522.181102365
664587.664698161957522.408464566664586.695209973957522.635498688
664585.725721784957522.862532809664584.755905513 957523.08989501
664583.786417324957523.316929132664582.816929135957523.543963254
664581.847112861957523.771325462664580.877624672957523.998359583
664579.907808401957524.225393698664578.938320208957524.452755906
 664577.96883202957524.679790027664576.999015749957524.906824149
 664576.02952756 957525.13418635664575.059711285957525.361220472
664574.090223096 957525.58858268664573.120734908957525.815616801
664572.150918636957526.042650916664571.181430448957526.270013124
664570.211614173957526.497047246664569.242125984957526.724081367
664568.272637796957526.951443568664567.302821521 957527.17847769
664566.333333332957527.405511811664565.363517061957527.632874019
664564.394028872957527.859908134664563.424540684957528.087270342
664562.454724409957528.314304464 664561.48523622957528.541338585
664560.515419949957528.768700786 664559.54593176957528.995734908
664558.576443568957529.222769029664557.606627297 957529.45013123
664556.637139108957529.677165352664555.667322833957529.904199474
664554.697834644957530.131561682664553.728346456957530.358595803
664552.758530185957530.585629918664551.789041996957530.812992126
664550.819225721957531.040026248664549.849737532957531.267388448
664548.880249344 957531.49442257664547.910433073957531.721456692
 664546.94094488  957531.9488189664545.971456692957532.175853021
 664545.00164042957532.402887136664544.032152232957532.630249344
664543.062335957957532.857283466664542.092847768957533.084317587
 664541.12335958957533.311679788664540.153543308 957533.53871391
 664539.18405512957533.765748031664538.214238845 957533.99311024
664537.244750656957534.220144354664536.275262468957534.447506562
664535.305446193957534.674540684664534.335958004957534.901574805
664533.366141733957535.128937006664532.396653544957535.355971128
664531.422900263 957535.58070866664530.449146982957535.805774279
664529.475065615957536.030511811664528.501312338 957536.25557743
664527.527559057957536.480314963664526.553805776957536.705380574
664525.579724409957536.930118114664524.605971128957537.154855646
664523.632217847957537.379921258664522.658464566 957537.60465879
664521.684383202957537.829724409664520.710629921957538.054461941
 664519.73687664 957538.27952756 664518.76312336957538.504265092
664517.789041996957538.729002625664516.815288715957538.954068244
664515.841535434957539.178805776664514.867782153957539.403871395
664513.893700786957539.628608927664512.919947505957539.853674538
664511.946194224957540.078412071664510.972440943957540.303149603
 664509.99835958957540.528215222664509.024606299957540.752952755
664508.050853018957540.978018373664507.077099737957541.202755906
664506.103018373957541.427493438664505.129265092957541.652559057
664504.155511811957541.877296589 664503.18175853957542.102362208
 664502.20800525957542.327099741664501.233923886957542.552165352
664500.260170605957542.776902884664499.286417324957543.001640417
664498.312664043957543.226706035664497.338582676957543.451443568
664496.364829395957543.676509187664495.391076114957543.901246719
664494.417322833957544.126312338 664493.44324147 957544.35104987
664492.469488189957544.575787403664491.495734908957544.800853021
664490.521981627957545.025590554664489.547900263957545.250656165
664488.574146982957545.475393698664487.600393701957545.700459316
 664486.62664042957545.925196849664485.652559057957546.149934381
664484.678805776      957546.375664483.705052495957546.599737532
664482.731299214957546.824803151664481.757217847957547.049540684
664480.783464566957547.274606302664479.809711285957547.499343835
664478.835958004957547.724081367 664477.86187664957547.949146979
 664476.88812336957548.173884511664475.914370079 957548.39895013
664474.940616798957548.623687662664473.966535434957548.848753281
664472.992782153957549.073490813664472.019028872957549.298228346
664471.045275591957549.523293965 664470.07152231957549.748031497
664469.097440943957549.973097116664468.123687662957550.197834648
664467.149934385957550.422572181664466.176181104957550.647637792
664465.202099737957550.872375324664464.228346456957551.097440943
664463.254593175957551.322178476664462.280839894957551.547244094
 664461.30675853957551.771981627 664460.33300525957551.996719159
664459.359251969957552.221784778664458.385498688 957552.44652231
664457.411417324957552.671587929664456.437664043957552.896325462
664455.463910762957553.121391073664454.490157481957553.346128605
664453.516076114957553.570866145664452.542322833957553.795931757
664451.568569552957554.020669289664450.594816271957554.245734908
664449.620734908 957554.47047244664448.646981627957554.695538059
664447.673228346957554.920275591664446.699475065957555.145013124
664445.725393701957555.370078743 664444.75164042957555.594816275
664443.777887139957555.819881886664442.804133859957556.044619426
664441.830380578957556.269685037664440.856299214 957556.49442257
664439.882545933957556.719160102664438.908792652957556.944225721
664437.935039371957557.168963254664436.960958004957557.394028872
664435.987204723957557.618766405664435.013451442957557.843832023
664434.039698161957558.068569556664433.065616798957558.293307088
664432.091863517957558.518372707664431.118110236 957558.74311024
664430.144356955957558.968175851664429.170275591957559.192913383
 664428.19652231957559.417650916664427.222769029957559.642716534
664426.249015749957559.867454067664425.274934385957560.092519686
664424.301181104957560.317257218664423.327427823957560.542322837
664422.353674542957560.767060369664421.379593175957560.991797902
664420.405839894 957561.21686352664419.432086613957561.441601053
664418.458333332957561.666666664664417.484251969957561.891404197
664416.510498688957562.116469815664415.536745407957562.341207348
664414.548228346957562.488188975664413.560039371957562.635498688
 664412.57152231957562.782480314664411.583333332957562.929790027
664410.594816271957563.076771654664409.606299214957563.223753281
664408.618110236957563.371062994664407.629593175957563.518044621
  664406.6414042957563.665354334664405.652887139957563.812335961
664404.664370079957563.959317587664403.676181104957564.106627293
664402.687664043957564.253608927664401.699475065957564.400918633
664400.710958004957564.547900259664399.722440943957564.694881886
664398.734251969957564.842191599664397.745734908957564.989173226
664396.757217847957565.136482939664395.769028872957565.283464566
664394.780511811957565.430446193664393.792322833957565.577755906
664392.803805776957565.724737532664391.815288715957565.872047246
664390.827099737957566.019028872664389.838582676957566.166010499
664388.850393701957566.313320212 664387.86187664957566.460301839
 664386.87335958957566.607611552664385.885170605957566.754593179
664384.896653544957566.901574805664383.908464566957567.048884511
664382.919947505957567.195866145664381.931430448957567.343175851
 664380.94324147957567.490157478664379.954724409957567.637139104
664378.966535434957567.784448817664377.978018373957567.931430444
664376.989501312957568.078740157664376.001312338957568.225721784
664375.012795277957568.372703411664374.024606299957568.520013124
664373.036089238957568.666994751664372.047572177957568.814304464
664371.059383202 957568.96128609664370.070866141957569.108267717
664369.082677167 957569.25557743664368.094160106957569.402559057
664367.105643045 957569.54986877664366.117454067957569.696850397
 664365.12893701957569.843832023664364.140748031957569.991141729
664363.152230971957570.138123363 664362.16371391957570.285433069
664361.175524935957570.432414696664360.187007874957570.579396322
664359.198490813957570.726706035664358.210301839957570.873687662
664357.221784778957571.020997375  664356.2335958957571.167979002
664355.245078739957571.314960629664354.256561682957571.462270342
664353.268372703957571.609251969664352.279855642957571.756561682
664351.291666668957571.903543308664350.303149607957572.050524935
664349.314632546957572.197834648664348.326443568957572.344816275
664347.337926511957572.492125981664346.349737532957572.639107615
664345.361220472957572.786089242664344.372703411957572.933398947
664343.384514436957573.080380574664342.395997375957573.227690287
664341.407808401957573.374671914 664340.41929134957573.521981627
664339.430774279957573.668963254664338.442585301 957573.81594488
 664337.45406824957573.963254593664336.465879265 957574.11023622
664335.477362204957574.257545933664334.488845143 957574.40452756
664333.500656169957574.551509187664332.512139108  957574.6988189
 664331.52395013957574.845800526664330.535433073 957574.99311024
664329.546916012957575.140091866664328.558727033957575.287073493
664327.570209973957575.434383199664326.582020998957575.581364833
664325.593503937957575.728674538664324.604986876957575.875656165
664323.616797902957576.022637792664322.628280841957576.169947505
 664321.63976378957576.316929132664320.651574802957576.464238845
664319.663057745957576.611220472664318.674868766957576.758202098
664317.686351705957576.905511811664316.697834644957577.052493438
 664315.70964567957577.199803151664314.721128609957577.346784778
664313.732939631957577.493766405664312.744422574957577.641076118
664311.755905513957577.788057745664310.767716534957577.935367458
664309.779199474957578.082349084664308.791010499957578.229330711
664307.802493438957578.376640417664306.813976377957578.523622051
664305.825787403957578.670931757664304.837270342957578.817913383
664303.849081364 957578.96489501664302.860564303957579.112204723
664301.872047246 957579.25918635664300.883858267957579.406496063
664299.895341206 957579.55347769664298.907152232957579.700459316
664297.918635171957579.847769029 664296.93011811957579.994750656
664295.941929135957580.142060369664294.953412075957580.289041996
664293.965223096957580.436023623664292.976706035957580.583333336